% ========================================================================= %
% SU2 Configuration File
% NACA0012 airfoil, α=0°, M=0.3, Re=6e6, RANS-SA turbulence model
%
% Reference: Ladson, C. L., NASA TM-4074, 1988
%
% Rendered with Jinja2 by the SU2 adapter. Variables from
% SolverConfig.parameters: mach, aoa_deg, reynolds
% ========================================================================= %

% -------------------- %
% PROBLEM DEFINITION   %
% -------------------- %
SOLVER= RANS
KIND_TURB_MODEL= SA
MATH_PROBLEM= DIRECT
RESTART_SOL= NO

% ----------- %
% FREE STREAM %
% ----------- %
MACH_NUMBER= {{ mach }}
AOA= {{ aoa_deg }}
FREESTREAM_TEMPERATURE= 288.15
FREESTREAM_PRESSURE= 101325.0
REYNOLDS_NUMBER= {{ reynolds }}
REYNOLDS_LENGTH= 1.0

% ----------------------- %
% GEOMETRIC DEFINITION    %
% ----------------------- %
MESH_FORMAT= SU2
MESH_FILENAME= mesh.su2

% -------------------- %
% BOUNDARY CONDITIONS  %
% -------------------- %
MARKER_FAR= ( farfield )
MARKER_WALL= ( airfoil )

% -----------------%
% NUMERICAL METHOD %
% -----------------%
NUM_METHOD_GRAD= GREEN_GAUSS
CFL_NUMBER= 5.0
CFL_ADAPT= YES
CFL_ADAPT_PARAM= ( 0.1 2.0 0.1 5.0 )
TIME_DISCRE_FLOW= NO
TIME_DISCRE_TURB= NO

% ------------------------ %
% LINEAR SOLVER CONTROL    %
% ------------------------ %
LINEAR_SOLVER= FGMRES
LINEAR_SOLVER_PREC= ILU
LINEAR_SOLVER_ERROR= 1E-6
LINEAR_SOLVER_ITER= 10

% -------------------- %
% CONVERGENCE CRITERIA %
% -------------------- %
CONV_RESIDUAL_MINVAL= -8
CONV_STARTITER= 100
CONV_FIELD= ( DRAG, LIFT )

% -----------------%
% OUTPUT SETTINGS %
% -----------------%
OUTPUT_FILES= ( RESTART, PARAVIEW, CSV )
VOLUME_OUTPUT= ( COEFFICIENTS, PRESSURE, MACH )
SURFACE_OUTPUT= ( COEFFICIENTS, PRESSURE )
HISTORY_OUTPUT= ( AVG_CFL, LINSOL, AERO_COEFF )
SCREEN_OUTPUT= ( ITER, RMS_RES, AERO_COEFF )
CSV_FILENAME= surface_flow.csv

% -------------------- %
% END OF CONFIGURATION %
% -------------------- %
