/*--------------------------------*- C++ -*----------------------------------*\
  =========                 |
  \\      /  F ield         | OpenFOAM: The Open Source CFD Toolbox
   \\    /   O peration     |
   \\  /    A nd           | Web:  www.OpenFOAM.com
    \\/     M anipulation  |
-------------------------------------------------------------------------------
Description
    Discretization schemes for simpleFoam RANS-SA (SpalartAllmaras)
    on the NACA0012 airfoil case.

\*---------------------------------------------------------------------------*/

 FoamFile
 {
     version     2.0;
     format      ascii;
     class       dictionary;
     object      fvSchemes;
 }

ddtSchemes
{
    default         steadyState;
}

gradSchemes
{
    default         Gauss linear;
    grad(U)         Gauss linear;
    grad(nuTilda)   cellLimited Gauss linear 1;
}

divSchemes
{
    default         none;
    // Second-order upwind for Cl/Cd accuracy on validation cases (Ladson 1988).
    // First-order pure upwind was used during early stability tuning but
    // introduces excessive numerical viscosity, under-predicting Cl slope
    // and over-predicting Cd by >10% at α=10/15°. linearUpwind needs the
    // matching grad() entry above.
    //
    // P3-tail note (2026-06-17): tested div(phi,nuTilda)=upwind as an SA
    // stabilization attempt — marginally raised Cl on α=5 (0.016→0.021) but
    // did NOT prevent the step-200 nuTilda divergence on this coarse high-y+
    // mesh. Reverted to linearUpwind; the root cause is mesh/relaxation, not
    // scheme order. The QoI rollback in extract_cl_cd_openfoam remains the
    // safety net that captures physically meaningful pre-divergence values.
    div(phi,U)      Gauss linearUpwind grad(U);
    div(phi,nuTilda) bounded Gauss linearUpwind grad(nuTilda);
    div((nuEff*dev2(T(grad(U))))) Gauss linear;
}

laplacianSchemes
{
    default         Gauss linear corrected;
}

interpolationSchemes
{
    default         linear;
}

snGradSchemes
{
    default         corrected;
}

wallDist
{
    method meshWave;
}

// Reynolds: {{ reynolds }}, nu: {{ nu }}

// ************************************************************************* //
