/*--------------------------------*- C++ -*----------------------------------*\
  =========                 |
  \\      /  F ield         | OpenFOAM: The Open Source CFD Toolbox
   \\    /   O peration     |
   \\  /    A nd           | Web:  www.OpenFOAM.com
    \\/     M anipulation  |
-------------------------------------------------------------------------------
Description
    SIMPLE algorithm + under-relaxation for NACA0012 (simpleFoam RANS-SA).

    Under-relaxation: p 0.2, U 0.5, nuTilda 0.3 — tuned for SA stability on
    high-y+ snappyHexMesh grids. Tight p relaxation is needed because the
    coarse background blockMesh + snappy refinement produces high
    non-orthogonality near the airfoil surface.

\*---------------------------------------------------------------------------*/

 FoamFile
 {
     version     2.0;
     format      ascii;
     class       dictionary;
     object      fvSolution;
 }

solvers
{
    p
    {
        solver          GAMG;
        tolerance       1e-08;
        relTol          0.01;
        smoother        GaussSeidel;
        nPreSweeps      0;
        nPostSweeps     2;
        cacheAgglomeration true;
        nCellsInCoarsestLevel 10;
        agglomerator    faceAreaPair;
        mergeLevels     1;
    }
    U
    {
        solver          smoothSolver;
        smoother        symGaussSeidel;
        tolerance       1e-08;
        relTol          0.01;
    }
    nuTilda
    {
        solver          smoothSolver;
        smoother        symGaussSeidel;
        tolerance       1e-10;
        relTol          0.001;
    }
}

SIMPLE
{
    momentumPredictor yes;
    nNonOrthogonalCorrectors 2;
    pRefCell        0;
    pRefValue       0;

    residualControl
    {
        U               1e-5;
        p               1e-5;
        // nuTilda intentionally NOT in residualControl — SA working variable
        // converges very slowly and its residual plateau at ~0.06 is normal
        // for high-y+ meshes. Forcing nuTilda convergence via residualControl
        // causes early SIMPLE termination with un-converged turbulence.
    }
}

relaxationFactors
{
    equations
    {
        U               0.5;
        p               0.2;
        nuTilda         0.3;
    }
}

// Reynolds: {{ reynolds }}, nu: {{ nu }}

// ************************************************************************* //
