/*--------------------------------*- C++ -*----------------------------------*\
  =========                 |
  \\      /  F ield         | OpenFOAM: The Open Source CFD Toolbox
   \\    /   O peration     |
   \\  /    A nd           | Web:  www.OpenFOAM.com
    \\/     M anipulation  |
-------------------------------------------------------------------------------
Description
    SIMPLE algorithm + under-relaxation for NACA0012 (simpleFoam RANS-SA).

    Under-relaxation: p 0.3, U 0.7, nuTilda 0.7.

\*---------------------------------------------------------------------------*/

 FoamFile
 {
     version     2.0;
     format      ascii;
     class       dictionary;
     object      fvSolution;
 }

solvers
{
    p
    {
        solver          GAMG;
        tolerance       1e-06;
        relTol          0.1;
        smoother        GaussSeidel;
    }
    U
    {
        solver          smoothSolver;
        smoother        symGaussSeidel;
        tolerance       1e-08;
        relTol          0.1;
    }
    nuTilda
    {
        solver          smoothSolver;
        smoother        symGaussSeidel;
        tolerance       1e-08;
        relTol          0.1;
    }
}

SIMPLE
{
    momentumPredictor yes;
    nNonOrthogonalCorrectors 1;
    pRefCell        0;
    pRefValue       0;

    residualControl
    {
        U               1e-5;
        p               1e-5;
        nuTilda         1e-5;
    }
}

relaxationFactors
{
    equations
    {
        U               0.7;
        p               0.3;
        nuTilda         0.7;
    }
}

// Reynolds: {{ reynolds }}, nu: {{ nu }}

// ************************************************************************* //
