/*--------------------------------*- C++ -*----------------------------------*\
  =========                 |
  \\      /  F ield         | OpenFOAM: The Open Source CFD Toolbox
   \\    /   O peration     |
   \\  /    A nd           | Web:  www.OpenFOAM.com
    \\/     M anipulation  |
-------------------------------------------------------------------------------
Description
    snappyHexMeshDict for NACA0012 airfoil mesh refinement.

    Refines the background blockMesh around the airfoil STL and adds
    boundary layer cells (prism layers) on the airfoil surface.

    Rendered with Jinja2 by the OpenFOAM adapter.

\*---------------------------------------------------------------------------*/

 FoamFile
 {
     version     2.0;
     format      ascii;
     class       dictionary;
     object      snappyHexMeshDict;
 }

castellatedMesh on;
snap            on;
addLayers       on;

geometry
{
    naca0012.stl
    {
        type triSurfaceMesh;
        name airfoil;
    }

    refinementBox
    {
        type searchableBox;
        min (-0.2 -0.2 -0.1);
        max ( 1.2  0.2  0.1);
    }

    // P3.1-SST Phase 8 (Plan C-1, 2026-06-18): leading-edge local
    // refinement box. The previous setup relied on STL curvature to drive
    // extra LE refinement, but snappyHexMesh's curvature refinement never
    // triggered (the fan-triangulated STL has no sharp feature edges at the
    // LE, so `resolveFeatureAngle` and `curvature` marking stayed at 0
    // cells). At base surface level (5 6) the LE周向 only ~12 cells,
    // under-resolving the Cp suction peak (Cp_min ≈ -1.5 at x/c=0.025 per
    // Ladson) and biasing Cl low by ~4× while Cd comes out ~4× too high
    // (numerical dissipation). This small LE box forces level 7 (Δx≈1.4 mm,
    // smaller than the LE radius ρ_LE≈6 mm) in a tight region around the
    // stagnation point, giving ~40 cells around the LE circumference. Box
    // bounds kept very tight (x∈[0, 0.05], y∈[-0.02, 0.02]) — only the
    // actual high-gradient suction-peak zone — so level-7 cell count stays
    // within budget (~50k extra cells, total ~180k < 250k cap).
    leRefinementBox
    {
        type searchableBox;
        min (0.0 -0.02 -0.06);
        max (0.05  0.02  0.06);
    }
};

castellatedMeshControls
{
    // P3.1-SST Phase 8 (Plan C-1): raised 200k→300k to accommodate the LE
    // refinement box (level 7) without snappyHexMesh stopping early. Worst
    // case estimate: 90k level-7 cells + 100k surface (5/6) cells + 10k
    // background = ~200k total, comfortably under 300k.
    maxLocalCells 300000;
    maxGlobalCells 1500000;
    minRefinementCells 0;

    // P3.1-SA Phase 5: nCellsBetweenLevels 2→3 for smoother refinement
    // transitions at the higher Level (5 6) surface refinement. Reduces
    // adjacent-cell volume ratios that previously triggered prism-layer
    // medial-axis truncation.
    nCellsBetweenLevels 3;

    features
    (
    );

    refinementSurfaces
    {
        airfoil
        {
            // P3.1-SA Phase 5 (Bug 2 fix): level (5 6) — 32-64x background
            // refinement on the airfoil surface. Phase 4 used (4 5) and
            // under-resolved the leading-edge Cp suction peak (Level 4 →
            // Δx≈11 mm at the LE, comparable to the leading-edge radius
            // ρ_LE≈6 mm for NACA0012), biasing Cl low by ~4× even after the
            // span normalisation fix. Level 5 gives Δx≈5.7 mm at the LE,
            // Level 6 inside refinement gives Δx≈2.8 mm — enough to resolve
            // the suction peak at α=5°. Cell budget impact: ~3× more airfoil
            // surface cells, still well under maxLocalCells 200k.
            level (5 6);
            patchInfo { type wall; }
        }
    }

    resolveFeatureAngle 30;

    refinementRegions
    {
        refinementBox
        {
            mode inside;
            levels ((1E15 2));
        }

        // P3.1-SST Phase 8 (Plan C-1): LE local refinement to level 7.
        // Inside this tight box around the leading edge, force cells to
        // refinement level 7 (Δx≈1.4 mm). This is in addition to the
        // surface (5 6) refinement — the surface stays at level 6 but the
        // volume around the LE goes one level deeper, giving ~40 cells
        // around the LE circumference vs ~12 without it.
        leRefinementBox
        {
            mode inside;
            levels ((1E15 7));
        }
    }

    // P3.1-SA Phase 5 (Bug 2 fix): locationInMesh must be unambiguously in
    // the fluid region. The previous value (0.5 0 0) sits ON the chord line,
    // and NACA0012 half-thickness at x=0.5 is y_t≈0.053 — so the point is
    // inside the airfoil envelope. snappyHexMesh happened to tolerate this
    // (the open STL surface does not form a closed solid, so the inside/
    // outside test is ill-defined), but it makes mesh correctness depend on
    // STL winding luck. Move the point one chord upstream at y=0 (clearly
    // outside the airfoil) to make the intent unambiguous.
    locationInMesh (-1.0 0.0 0.0);

    allowFreeStandingZoneFaces true;
}

snapControls
{
    nSmoothPatch 3;
    tolerance 2.0;
    nSolveIter 30;
    nRelaxIter 5;
    nFeatureSnapIter 10;
    implicitFeatureSnap false;
    explicitFeatureSnap true;
    multiRegionFeatureSnap false;
}

addLayersControls
{
    // P3.1-SA Phase 5 (Bug 2 fix): switch to absolute sizing to control y+
    // directly. Phase 3-4 used relativeSizes=true with finalLayerThickness=0.3,
    // which coupled layer thickness to the neighbouring cell size (~5.7 mm at
    // surface level 5), producing a first-layer thickness ~0.7 mm and y+~150.
    // At that y+ the wall function sits deep in the log layer and the LE
    // suction peak (Cp ≈ -1.5 at x/c=0.025 per Ladson) is under-resolved,
    // biasing Cl low by ~4×.
    //
    // P3.1-SST Phase 9 (Plan B): target y+ ≈ 30 in the wall-function sweet
    // spot. v8 used finalLayerThickness 0.5 mm → first-cell 0.08 mm → median
    // y+ ≈ 12 (94% of airfoil cells in the y+ 5–30 "buffer layer" where
    // nutkWallFunction is unreliable). This biased Cd_pressure 2.9× high
    // (0.0086 vs expected ~0.003) while Cl was already correct at 0.439.
    //
    // P3.1-SST Phase 10 (Plan A): low-Re direct integration, y+ < 1.
    // ABANDONED 2026-06-18 after v10b and v10c both demonstrated that
    // snappyHexMesh cannot generate a sub-micron first cell on the current
    // surface-refinement level (5 6). Detailed failure mode:
    //
    //   - v10b: 15 prism layers, finalLayerThickness 50 μm (outermost),
    //     ~2.86 μm innermost. snappyHexMesh layer addition iteration 0
    //     produced 441482 illegal faces (concave / zero area / negative
    //     pyramid volume); iteration 1 then refused to insert any cell at
    //     all (0 / 236160 added). Final mesh: 56198 cells, no prism layers,
    //     Fx_viscous collapsed to 0.09 N (near-inviscid solution).
    //   - v10c: thicknessModel firstAndExpansion, 10 layers,
    //     firstLayerThickness 4.46 μm (y+ = 1 at Re=6e6, u_tau≈3.74 m/s),
    //     expansionRatio 1.2, total stack ~0.18 mm. Same failure: iteration
    //     0 inserted 151680/157440 (96.3%) but generated 398604 illegal
    //     faces, iteration 1 discarded all of them (0/157440). Final mesh
    //     again 56198 cells with no prism layers.
    //
    // Root cause: first-cell 4-5 μm is ~1000× smaller than the
    // surface-refinement-level-5 cells (~5.7 mm) that the prism stack grows
    // into. snappyHexMesh's displacementMedialAxis shrinker cannot compress
    // the interior cells by that factor without violating mesh-quality
    // limits (maxNonOrtho, face pyramids). Making low-Re work would require
    // either (a) much deeper surface refinement (level 7-8 → 1.4-0.7 mm
    // cells) to close the aspect-ratio gap at 4-8× total cell cost, or
    // (b) replacing snappyHexMesh with a structured blockMesh O-grid for
    // the airfoil. Both are out of scope for this iteration; Plan A is
    // deferred to a future mesh-infrastructure milestone.
    //
    // Plan B (below) is the shipped configuration. Cd_pressure remains
    // ~4× too high (v8/v9 measured +0.0086 where streamlined airfoils at
    // α=5° should be 0.002-0.004), diagnosed as excessive suction-side BL
    // growth over x/c ∈ [0, 0.3] weakening the LE suction peak — but Cl is
    // within 5% of Ladson (v8: 0.439 vs 0.456; v9: 0.448 vs 0.456) and the
    // configuration is stable and reproducible.
    //
    // Thickness sizing for y+ ≈ 30:
    //   y+ = u_tau·y_1/nu → y_1 = 30·nu/u_tau
    // With Cf≈0.005 → τ_w≈30 Pa → u_tau≈5 m/s → y_1 ≈ 0.1 mm at LE, but the
    // flat-plate-equivalent is closer to 0.25 mm where u_tau is lower. Use
    // finalLayerThickness 1.2 mm with expansionRatio 1.2 over 10 layers →
    // outermost layer 1.2 mm, innermost (first-cell) ≈ 0.19 mm → y+ ≈ 30 on
    // the bulk of the airfoil. Total stack ≈ 5.9 mm, still < 6% of chord and
    // clear of the medial-axis truncation that previously cut the layer short.
    relativeSizes false;

    thicknessModel finalAndExpansion;

    layers
    {
        "airfoil.*"
        {
            nSurfaceLayers 10;
        }
    }

    expansionRatio 1.2;
    finalLayerThickness 0.0012;  // 1.2 mm (absolute) — Plan B, y+ ≈ 30
    minThickness 1e-05;          // 10 μm floor

    nGrow 0;
    featureAngle 60;
    nRelaxIter 5;
    nSmoothSurfaceNormals 1;
    nSmoothThickness 10;
    nSmoothNormals 3;
    maxFaceThicknessRatio 0.8;
    maxThicknessToMedialRatio 0.5;
    minMedialAxisAngle 90;
    slipFeatureAngle 30;
    nBufferCellsNoExtrude 0;
    nLayerIter 80;
    nRelaxedIter 40;
}

meshQualityControls
{
    #includeEtc "caseDicts/meshQualityDict"

    //- Amount by which to scale back the motion if the mesh becomes invalid
    errorReduction 0.75;

    //- Number of smoothing iterations for the error-based motion
    nSmoothScale 4;

    //- Controls the relaxation of the mesh motion solver
    relaxed
    {
        maxNonOrtho 75;
    }
}

writeFlags
(
    scalarLevels
    layerSets
    layerFields
);

mergeTolerance 1e-6;

// ************************************************************************* //
